                                   MODFLOW 6
                U.S. GEOLOGICAL SURVEY MODULAR HYDROLOGIC MODEL
                          GROUNDWATER FLOW MODEL (GWF)
                            VERSION 6.5.0 05/23/2024

   MODFLOW 6 compiled May 23 2024 18:02:47 with Intel(R) Fortran Intel(R) 64
   Compiler Classic for applications running on Intel(R) 64, Version 2021.7.0
                             Build 20220726_000000

This software has been approved for release by the U.S. Geological 
Survey (USGS). Although the software has been subjected to rigorous 
review, the USGS reserves the right to update the software as needed 
pursuant to further analysis and review. No warranty, expressed or 
implied, is made by the USGS or the U.S. Government as to the 
functionality of the software and related material nor shall the 
fact of release constitute any such warranty. Furthermore, the 
software is released on condition that neither the USGS nor the U.S. 
Government shall be held liable for any damages resulting from its 
authorized or unauthorized use. Also refer to the USGS Water 
Resources Software User Rights Notice for complete use, copyright, 
and distribution information.


As a work of the United States Government, this USGS product is 
in the public domain within the United States. You can copy, 
modify, distribute, and perform the work, even for commercial 
purposes, all without asking permission. Additionally, USGS 
waives copyright and related rights in the work worldwide 
through CC0 1.0 Universal Public Domain Dedication 
(https://creativecommons.org/publicdomain/zero/1.0/).

The following GNU Lesser General Public License (LGPL) libraries
are used in this USGS product:

    SPARSKIT version 2.0
      ilut, luson, and qsplit 
      (https://www-users.cse.umn.edu/~saad/software/SPARSKIT/)

    RCM - Reverse Cuthill McKee Ordering
      (https://people.math.sc.edu/Burkardt/f_src/rcm/rcm.html)

    BLAS - Basic Linear Algebra Subprograms Level 1
      (https://people.math.sc.edu/Burkardt/f_src/blas1_d/blas1_d.html)

    SPARSEKIT - Sparse Matrix Utility Package
      amux, dperm, dvperm, rperm, and cperm
      (https://people.sc.fsu.edu/~jburkardt/f77_src/sparsekit/sparsekit.html)

The following BSD-3 License libraries are used in this USGS product:

    Modern Fortran DAG Library
      Copyright (c) 2018, Jacob Williams
      All rights reserved.
      (https://github.com/jacobwilliams/daglib)

MODFLOW 6 compiler options: -Isrc/libmf6core.a.p -Isrc -I../src
-Isrc/libmf6_external.a.p -D_FILE_OFFSET_BITS=64 -warn general -warn
truncated_source -stand=f08 -g -traceback -O2 -fpe0 -no-heap-arrays
-traceback -diag-disable:7416 -diag-disable:7025 -diag-disable:5268 -fPIC
-module src/libmf6core.a.p
-gen-dep=src/libmf6core.a.p/Utilities_compilerversion.F90.o
-gen-depformat=make -o src/libmf6core.a.p/Utilities_compilerversion.F90.o -c

System command used to initiate simulation:
/home/nate/Documents/trid3nt-local/bin/mf6

MODFLOW was compiled using uniform precision.

Real Variables
  KIND: 8
  TINY (smallest non-zero value):    2.225074-308
  HUGE (largest value):    1.797693+308
  PRECISION: 15
  SIZE IN BITS: 64

Integer Variables
  KIND: 4
  HUGE (largest value): 2147483647
  SIZE IN BITS: 32

Long Integer Variables
  KIND: 8
  HUGE (largest value): 9223372036854775807
  SIZE IN BITS: 64

Logical Variables
  KIND: 4
  SIZE IN BITS: 32
 
 NAMEFILE OPTIONS:
    FLOWS WILL BE SAVED TO BUDGET FILE SPECIFIED IN OUTPUT CONTROL
 END NAMEFILE OPTIONS:

 DIS -- STRUCTURED GRID DISCRETIZATION PACKAGE, VERSION 2 : 3/27/2014 - INPUT READ FROM MEMPATH: __INPUT__/CSUBSMOKE/DIS                           


 NPF -- NODE PROPERTY FLOW PACKAGE, VERSION 1, 3/30/2015 INPUT READ FROM MEMPATH: __INPUT__/CSUBSMOKE/NPF                           


 IC -- Initial Conditions Package, Version 8, 3/28/2015 input read from mempath: __INPUT__/CSUBSMOKE/IC                            


 Setting Discretization Options
 End Setting Discretization Options

 Setting Discretization Dimensions
    NLAY = 1
    NROW = 40
    NCOL = 40
 End Setting Discretization Dimensions

 Setting Discretization Griddata
    DELR set from input file
    DELC set from input file
    TOP set from input file
    BOTM set from input file
 End Setting Discretization Griddata

 Setting NPF Options
    Cell-by-cell flow information will be saved to binary file whenever ICBCFL is not zero.
 End Setting NPF Options

 Setting NPF Griddata
    ICELLTYPE set from input file
    K set from input file
    K33 not provided.  Setting K33 = K.
    K22 not provided.  Setting K22 = K.
 End Setting NPF Griddata


 WEL   -- WEL PACKAGE, VERSION 8, 2/22/2014 INPUT READ FROM MEMPATH: __INPUT__/CSUBSMOKE/WEL_0                         

 PROCESSING WEL BASE OPTIONS
 END OF WEL BASE OPTIONS

 PROCESSING WEL OPTIONS
 END OF WEL OPTIONS

 PROCESSING WEL BASE DIMENSIONS
    MAXBOUND =       1
 END OF WEL BASE DIMENSIONS

 CHD   -- CHD PACKAGE, VERSION 8, 2/22/2014 INPUT READ FROM MEMPATH: __INPUT__/CSUBSMOKE/CHD_0                         

 PROCESSING CHD BASE OPTIONS
 END OF CHD BASE OPTIONS

 PROCESSING CHD BASE DIMENSIONS
    MAXBOUND =      80
 END OF CHD BASE DIMENSIONS
    STRT set from input file

 STO -- STORAGE PACKAGE, VERSION 1, 5/19/2014 INPUT READ FROM UNIT 1006


 # File generated by Flopy version 3.10.0 on 07/20/2026 at 03:51:22.
 PROCESSING STORAGE OPTIONS
    CELL-BY-CELL FLOW INFORMATION WILL BE SAVED TO BINARY FILE WHENEVER ICBCFL IS NOT ZERO.
 END OF STORAGE OPTIONS
 PROCESSING GRIDDATA

                 ICONVERT = 0

         SPECIFIC STORAGE =   0.000000    

           SPECIFIC YIELD =  0.1500000    
 END PROCESSING GRIDDATA

 CSUB -- COMPACTION PACKAGE, VERSION 1, 12/15/2019 INPUT READ FROM UNIT 1011


 # File generated by Flopy version 3.10.0 on 07/20/2026 at 03:51:22.
 PROCESSING CSUB OPTIONS
    CSUB BOUNDARIES HAVE NAMES IN LAST COLUMN.
    FLOWS WILL BE SAVED TO BUDGET FILE SPECIFIED IN OUTPUT CONTROL

 OPENED csubsmoke.csub.compaction.bin
 FILE TYPE:DATA(BINARY)   UNIT 1014   STATUS:REPLACE             
 FORMAT:UNFORMATTED            ACCESS:STREAM              
 ACTION:READWRITE           

    CSUB  COMPACTION  WILL BE SAVED TO FILE: csubsmoke.csub.compaction.bin                                                                                                                                                                                                                                                                                                                                                                                                                                                                                                                                                                                                                                                                                                                                                                                                                                                                                                                                                                                                                                                                                                                                                                                                                                                                                                                                                                                                                                                                                                                                                                                                                                                                                                                                                                                                                                                                                                                                                                                                                                                                                                                                                                                                                                                                                                                                                                                                                                                                                                                                                                                                                                                                                                                                                                                                                                                                                                                                                                                                                                                                                                                                                                                                                                                                                                                                                                                                                                                                                                                                                                                                                                                                                                                                                                                                                                                                                                                                                                                                                                                                                                                                                                                                                                                                                                                                                                                                                                                                                                                                                                                                                                                                                                                                                                                                                                                                                                                                                                                                                                                                                                                                                                           
    OPENED ON UNIT:    1014

 OPENED csubsmoke.csub.zdisp.bin
 FILE TYPE:DATA(BINARY)   UNIT 1015   STATUS:REPLACE             
 FORMAT:UNFORMATTED            ACCESS:STREAM              
 ACTION:READWRITE           

    CSUB  ZDISPLACEMENT  WILL BE SAVED TO FILE: csubsmoke.csub.zdisp.bin                                                                                                                                                                                                                                                                                                                                                                                                                                                                                                                                                                                                                                                                                                                                                                                                                                                                                                                                                                                                                                                                                                                                                                                                                                                                                                                                                                                                                                                                                                                                                                                                                                                                                                                                                                                                                                                                                                                                                                                                                                                                                                                                                                                                                                                                                                                                                                                                                                                                                                                                                                                                                                                                                                                                                                                                                                                                                                                                                                                                                                                                                                                                                                                                                                                                                                                                                                                                                                                                                                                                                                                                                                                                                                                                                                                                                                                                                                                                                                                                                                                                                                                                                                                                                                                                                                                                                                                                                                                                                                                                                                                                                                                                                                                                                                                                                                                                                                                                                                                                                                                                                                                                                                                
    OPENED ON UNIT:    1015

 OPENED csubsmoke.csub.obs
 FILE TYPE:OBS   UNIT 1016   STATUS:OLD                 
 FORMAT:FORMATTED              ACCESS:SEQUENTIAL          
 ACTION:READ                

 END OF CSUB OPTIONS


 CSUB PACKAGE SETTINGS
    NUMBER OF DELAY CELLS = 19
    HEAD-BASED FORMULATION
    ELASTIC AND INELASTIC SPECIFIC STORAGE COEFFICIENTS WILL BE 
      SPECIFIED
    THICKNESS AND VOID RATIO WILL NOT BE ADJUSTED DURING THE
      SIMULATION
    INTERBED THICKNESS WILL BE SPECIFIED AS A AS A CELL FRACTION

    PRECONSOLIDATION HEAD WILL BE SPECIFIED RELATIVE TO INITIAL
      STRESS CONDITIONS
    DELAY INTERBED HEADS WILL BE SPECIFIED RELATIVE TO INITIAL 
      GWF HEADS
    GAMMAW        = 9806.650000000000
    BETA          = .4651200000000000E-09
    GAMMAW * BETA = .4561269047999999E-05

 PROCESSING CSUB DIMENSIONS
    NINTERBEDS = 9
    MAXSIG0 = 0
 END OF CSUB DIMENSIONS

The observation utility is active for "CSUB"
 # File generated by Flopy version 3.10.0 on 07/20/2026 at 03:51:22.

Processing observation options:



 CG_SKE_CR =  0.1000000E-04

 CG_THETA =  0.3000000    

 PROCESSING CSUB PACKAGEDATA
 END OF CSUB PACKAGEDATA
    BINARY GRID INFORMATION WILL BE WRITTEN TO:
      UNIT NUMBER: 1018
      FILE NAME: csubsmoke.dis.grb

 OPENED csubsmoke.dis.grb
 FILE TYPE:DATA(BINARY)   UNIT 1018   STATUS:REPLACE             
 FORMAT:UNFORMATTED            ACCESS:STREAM              
 ACTION:READWRITE           

      THE LAST TIME STEP WILL BE PRINTED
      THE LAST TIME STEP WILL BE PRINTED
 # File generated by Flopy version 3.10.0 on 07/20/2026 at 03:51:22.

 PROCESSING OC OPTIONS

    BUDGET INFORMATION WILL BE WRITTEN TO:
      UNIT NUMBER: 1019
      FILE NAME: csubsmoke.cbc

 OPENED csubsmoke.cbc
 FILE TYPE:DATA(BINARY)   UNIT 1019   STATUS:REPLACE             
 FORMAT:UNFORMATTED            ACCESS:STREAM              
 ACTION:READWRITE           

    HEAD INFORMATION WILL BE WRITTEN TO:
      UNIT NUMBER: 1020
      FILE NAME: csubsmoke.hds

 OPENED csubsmoke.hds
 FILE TYPE:DATA(BINARY)   UNIT 1020   STATUS:REPLACE             
 FORMAT:UNFORMATTED            ACCESS:STREAM              
 ACTION:READWRITE           

 END OF OC OPTIONS

start timestep kper="1" kstp="1" mode="normal"


 BEGIN READING OUTPUT CONTROL FOR STRESS PERIOD 1
      ALL TIME STEPS WILL BE SAVED
      ALL TIME STEPS WILL BE SAVED

 END READING OUTPUT CONTROL FOR STRESS PERIOD 1


 PROCESSING STORAGE PERIOD DATA
 END PROCESSING STORAGE PERIOD DATA


 STRESS PERIOD 1 IS STEADY-STATE


 REUSING CSUBS FROM LAST STRESS PERIOD
 UBDSV1 SAVING           STO-SS ON UNIT   1019 AT TIME STEP      1, STRESS PERIOD      1
 UBDSV1 SAVING     FLOW-JA-FACE ON UNIT   1019 AT TIME STEP      1, STRESS PERIOD      1
 UBDSV1 SAVING  CSUB-CGELASTIC  ON UNIT   1019 AT TIME STEP      1, STRESS PERIOD      1
 UBDSV06 SAVING    CSUB-ELASTIC  IN MODEL CSUBSMOKE        PACKAGE CSUBSMOKE       CONNECTED TO MODEL CSUBSMOKE        PACKAGE CSUB             ON UNIT   1019 AT TIME STEP      1, STRESS PERIOD      1
 UBDSV06 SAVING  CSUB-INELASTIC  IN MODEL CSUBSMOKE        PACKAGE CSUBSMOKE       CONNECTED TO MODEL CSUBSMOKE        PACKAGE CSUB             ON UNIT   1019 AT TIME STEP      1, STRESS PERIOD      1
 UBDSV1 SAVING  CSUB-WATERCOMP  ON UNIT   1019 AT TIME STEP      1, STRESS PERIOD      1
 UBDSV06 SAVING              WEL IN MODEL CSUBSMOKE        PACKAGE CSUBSMOKE       CONNECTED TO MODEL CSUBSMOKE        PACKAGE WEL_0            ON UNIT   1019 AT TIME STEP      1, STRESS PERIOD      1
 UBDSV06 SAVING              CHD IN MODEL CSUBSMOKE        PACKAGE CSUBSMOKE       CONNECTED TO MODEL CSUBSMOKE        PACKAGE CHD_0            ON UNIT   1019 AT TIME STEP      1, STRESS PERIOD      1

 CSUB-COMPACTION WILL BE SAVED ON UNIT 1014 AT END OF TIME STEP    1, STRESS PERIOD    1

 CSUB-ZDISPLACE WILL BE SAVED ON UNIT 1015 AT END OF TIME STEP    1, STRESS PERIOD    1

 HEAD WILL BE SAVED ON UNIT 1020 AT END OF TIME STEP    1, STRESS PERIOD    1


  VOLUME BUDGET FOR ENTIRE MODEL AT END OF TIME STEP    1, STRESS PERIOD   1
  ---------------------------------------------------------------------------------------------------

     CUMULATIVE VOLUME      L**3       RATES FOR THIS TIME STEP      L**3/T          PACKAGE NAME    
     ------------------                 ------------------------                     ----------------

           IN:                                      IN:
           ---                                      ---
              STO-SS =           0.0000                STO-SS =           0.0000     STORAGE                          
      CSUB-CGELASTIC =           0.0000        CSUB-CGELASTIC =           0.0000     CSUB                             
        CSUB-ELASTIC =           0.0000          CSUB-ELASTIC =           0.0000     CSUB                             
      CSUB-INELASTIC =           0.0000        CSUB-INELASTIC =           0.0000     CSUB                             
      CSUB-WATERCOMP =           0.0000        CSUB-WATERCOMP =           0.0000     CSUB                             
                 WEL =           0.0000                   WEL =           0.0000     WEL_0                            
                 CHD =         529.2308                   CHD =         529.2308     CHD_0                            

            TOTAL IN =         529.2308              TOTAL IN =         529.2308

          OUT:                                     OUT:
          ----                                     ----
              STO-SS =           0.0000                STO-SS =           0.0000     STORAGE                          
      CSUB-CGELASTIC =           0.0000        CSUB-CGELASTIC =           0.0000     CSUB                             
        CSUB-ELASTIC =           0.0000          CSUB-ELASTIC =           0.0000     CSUB                             
      CSUB-INELASTIC =           0.0000        CSUB-INELASTIC =           0.0000     CSUB                             
      CSUB-WATERCOMP =           0.0000        CSUB-WATERCOMP =           0.0000     CSUB                             
                 WEL =           0.0000                   WEL =           0.0000     WEL_0                            
                 CHD =         529.2307                   CHD =         529.2307     CHD_0                            

           TOTAL OUT =         529.2307             TOTAL OUT =         529.2307

            IN - OUT =       6.0157E-05              IN - OUT =       6.0157E-05

 PERCENT DISCREPANCY =           0.00     PERCENT DISCREPANCY =           0.00




         TIME SUMMARY AT END OF TIME STEP    1 IN STRESS PERIOD    1
                    SECONDS     MINUTES      HOURS       DAYS        YEARS
                    -----------------------------------------------------------
   TIME STEP LENGTH  86400.      1440.0      24.000      1.0000     2.73785E-03
 STRESS PERIOD TIME  86400.      1440.0      24.000      1.0000     2.73785E-03
         TOTAL TIME  86400.      1440.0      24.000      1.0000     2.73785E-03


end timestep


start timestep kper="2" kstp="1" mode="normal"


 END OF FILE DETECTED IN OUTPUT CONTROL.
 CURRENT OUTPUT CONTROL SETTINGS WILL BE 
 REPEATED UNTIL THE END OF THE SIMULATION.

 OUTPUT CONTROL FOR STRESS PERIOD 2 IS REPEATED USING SETTINGS FROM A PREVIOUS STRESS PERIOD.


 PROCESSING STORAGE PERIOD DATA
 END PROCESSING STORAGE PERIOD DATA


 STRESS PERIOD 2 IS TRANSIENT


 REUSING CSUBS FROM LAST STRESS PERIOD
 UBDSV1 SAVING           STO-SS ON UNIT   1019 AT TIME STEP      1, STRESS PERIOD      2
 UBDSV1 SAVING     FLOW-JA-FACE ON UNIT   1019 AT TIME STEP      1, STRESS PERIOD      2
 UBDSV1 SAVING  CSUB-CGELASTIC  ON UNIT   1019 AT TIME STEP      1, STRESS PERIOD      2
 UBDSV06 SAVING    CSUB-ELASTIC  IN MODEL CSUBSMOKE        PACKAGE CSUBSMOKE       CONNECTED TO MODEL CSUBSMOKE        PACKAGE CSUB             ON UNIT   1019 AT TIME STEP      1, STRESS PERIOD      2
 UBDSV06 SAVING  CSUB-INELASTIC  IN MODEL CSUBSMOKE        PACKAGE CSUBSMOKE       CONNECTED TO MODEL CSUBSMOKE        PACKAGE CSUB             ON UNIT   1019 AT TIME STEP      1, STRESS PERIOD      2
 UBDSV1 SAVING  CSUB-WATERCOMP  ON UNIT   1019 AT TIME STEP      1, STRESS PERIOD      2
 UBDSV06 SAVING              WEL IN MODEL CSUBSMOKE        PACKAGE CSUBSMOKE       CONNECTED TO MODEL CSUBSMOKE        PACKAGE WEL_0            ON UNIT   1019 AT TIME STEP      1, STRESS PERIOD      2
 UBDSV06 SAVING              CHD IN MODEL CSUBSMOKE        PACKAGE CSUBSMOKE       CONNECTED TO MODEL CSUBSMOKE        PACKAGE CHD_0            ON UNIT   1019 AT TIME STEP      1, STRESS PERIOD      2

 CSUB-COMPACTION WILL BE SAVED ON UNIT 1014 AT END OF TIME STEP    1, STRESS PERIOD    2

 CSUB-ZDISPLACE WILL BE SAVED ON UNIT 1015 AT END OF TIME STEP    1, STRESS PERIOD    2

 HEAD WILL BE SAVED ON UNIT 1020 AT END OF TIME STEP    1, STRESS PERIOD    2


  VOLUME BUDGET FOR ENTIRE MODEL AT END OF TIME STEP    1, STRESS PERIOD   2
  ---------------------------------------------------------------------------------------------------

     CUMULATIVE VOLUME      L**3       RATES FOR THIS TIME STEP      L**3/T          PACKAGE NAME    
     ------------------                 ------------------------                     ----------------

           IN:                                      IN:
           ---                                      ---
              STO-SS =           0.0000                STO-SS =           0.0000     STORAGE                          
      CSUB-CGELASTIC =        2169.3932        CSUB-CGELASTIC =           5.9435     CSUB                             
        CSUB-ELASTIC =           0.0000          CSUB-ELASTIC =           0.0000     CSUB                             
      CSUB-INELASTIC =        5651.9260        CSUB-INELASTIC =          15.4847     CSUB                             
      CSUB-WATERCOMP =         300.7226        CSUB-WATERCOMP =           0.8239     CSUB                             
                 WEL =           0.0000                   WEL =           0.0000     WEL_0                            
                 CHD =     1452407.6898                   CHD =        3977.7492     CHD_0                            

            TOTAL IN =     1460529.7315              TOTAL IN =        4000.0014

          OUT:                                     OUT:
          ----                                     ----
              STO-SS =           0.0000                STO-SS =           0.0000     STORAGE                          
      CSUB-CGELASTIC =           0.0000        CSUB-CGELASTIC =           0.0000     CSUB                             
        CSUB-ELASTIC =           0.0000          CSUB-ELASTIC =           0.0000     CSUB                             
      CSUB-INELASTIC =           0.0000        CSUB-INELASTIC =           0.0000     CSUB                             
      CSUB-WATERCOMP =           0.0000        CSUB-WATERCOMP =           0.0000     CSUB                             
                 WEL =     1460000.0000                   WEL =        4000.0000     WEL_0                            
                 CHD =         529.2307                   CHD =           0.0000     CHD_0                            

           TOTAL OUT =     1460529.2307             TOTAL OUT =        4000.0000

            IN - OUT =           0.5008              IN - OUT =       1.3719E-03

 PERCENT DISCREPANCY =           0.00     PERCENT DISCREPANCY =           0.00




         TIME SUMMARY AT END OF TIME STEP    1 IN STRESS PERIOD    2
                    SECONDS     MINUTES      HOURS       DAYS        YEARS
                    -----------------------------------------------------------
   TIME STEP LENGTH 3.15360E+07 5.25600E+05  8760.0      365.00     0.99932    
 STRESS PERIOD TIME 3.15360E+07 5.25600E+05  8760.0      365.00     0.99932    
         TOTAL TIME 3.16224E+07 5.27040E+05  8784.0      366.00      1.0021    


end timestep


start timestep kper="3" kstp="1" mode="normal"


 OUTPUT CONTROL FOR STRESS PERIOD 3 IS REPEATED USING SETTINGS FROM A PREVIOUS STRESS PERIOD.


 PROCESSING STORAGE PERIOD DATA
 END PROCESSING STORAGE PERIOD DATA


 STRESS PERIOD 3 IS TRANSIENT


 REUSING CSUBS FROM LAST STRESS PERIOD
 UBDSV1 SAVING           STO-SS ON UNIT   1019 AT TIME STEP      1, STRESS PERIOD      3
 UBDSV1 SAVING     FLOW-JA-FACE ON UNIT   1019 AT TIME STEP      1, STRESS PERIOD      3
 UBDSV1 SAVING  CSUB-CGELASTIC  ON UNIT   1019 AT TIME STEP      1, STRESS PERIOD      3
 UBDSV06 SAVING    CSUB-ELASTIC  IN MODEL CSUBSMOKE        PACKAGE CSUBSMOKE       CONNECTED TO MODEL CSUBSMOKE        PACKAGE CSUB             ON UNIT   1019 AT TIME STEP      1, STRESS PERIOD      3
 UBDSV06 SAVING  CSUB-INELASTIC  IN MODEL CSUBSMOKE        PACKAGE CSUBSMOKE       CONNECTED TO MODEL CSUBSMOKE        PACKAGE CSUB             ON UNIT   1019 AT TIME STEP      1, STRESS PERIOD      3
 UBDSV1 SAVING  CSUB-WATERCOMP  ON UNIT   1019 AT TIME STEP      1, STRESS PERIOD      3
 UBDSV06 SAVING              WEL IN MODEL CSUBSMOKE        PACKAGE CSUBSMOKE       CONNECTED TO MODEL CSUBSMOKE        PACKAGE WEL_0            ON UNIT   1019 AT TIME STEP      1, STRESS PERIOD      3
 UBDSV06 SAVING              CHD IN MODEL CSUBSMOKE        PACKAGE CSUBSMOKE       CONNECTED TO MODEL CSUBSMOKE        PACKAGE CHD_0            ON UNIT   1019 AT TIME STEP      1, STRESS PERIOD      3

 CSUB-COMPACTION WILL BE SAVED ON UNIT 1014 AT END OF TIME STEP    1, STRESS PERIOD    3

 CSUB-ZDISPLACE WILL BE SAVED ON UNIT 1015 AT END OF TIME STEP    1, STRESS PERIOD    3

 HEAD WILL BE SAVED ON UNIT 1020 AT END OF TIME STEP    1, STRESS PERIOD    3


  VOLUME BUDGET FOR ENTIRE MODEL AT END OF TIME STEP    1, STRESS PERIOD   3
  ---------------------------------------------------------------------------------------------------

     CUMULATIVE VOLUME      L**3       RATES FOR THIS TIME STEP      L**3/T          PACKAGE NAME    
     ------------------                 ------------------------                     ----------------

           IN:                                      IN:
           ---                                      ---
              STO-SS =           0.0000                STO-SS =           0.0000     STORAGE                          
      CSUB-CGELASTIC =        2180.8726        CSUB-CGELASTIC =       3.1450E-02     CSUB                             
        CSUB-ELASTIC =           0.0000          CSUB-ELASTIC =           0.0000     CSUB                             
      CSUB-INELASTIC =        5675.6170        CSUB-INELASTIC =       6.4907E-02     CSUB                             
      CSUB-WATERCOMP =         302.3096        CSUB-WATERCOMP =       4.3481E-03     CSUB                             
                 WEL =           0.0000                   WEL =           0.0000     WEL_0                            
                 CHD =     2912371.4892                   CHD =        3999.9008     CHD_0                            

            TOTAL IN =     2920530.2884              TOTAL IN =        4000.0015

          OUT:                                     OUT:
          ----                                     ----
              STO-SS =           0.0000                STO-SS =           0.0000     STORAGE                          
      CSUB-CGELASTIC =           0.0000        CSUB-CGELASTIC =           0.0000     CSUB                             
        CSUB-ELASTIC =           0.0000          CSUB-ELASTIC =           0.0000     CSUB                             
      CSUB-INELASTIC =           0.0000        CSUB-INELASTIC =           0.0000     CSUB                             
      CSUB-WATERCOMP =           0.0000        CSUB-WATERCOMP =           0.0000     CSUB                             
                 WEL =     2920000.0000                   WEL =        4000.0000     WEL_0                            
                 CHD =         529.2307                   CHD =           0.0000     CHD_0                            

           TOTAL OUT =     2920529.2307             TOTAL OUT =        4000.0000

            IN - OUT =           1.0577              IN - OUT =       1.5257E-03

 PERCENT DISCREPANCY =           0.00     PERCENT DISCREPANCY =           0.00




         TIME SUMMARY AT END OF TIME STEP    1 IN STRESS PERIOD    3
                    SECONDS     MINUTES      HOURS       DAYS        YEARS
                    -----------------------------------------------------------
   TIME STEP LENGTH 3.15360E+07 5.25600E+05  8760.0      365.00     0.99932    
 STRESS PERIOD TIME 3.15360E+07 5.25600E+05  8760.0      365.00     0.99932    
         TOTAL TIME 6.31584E+07 1.05264E+06  17544.      731.00      2.0014    


end timestep


start timestep kper="4" kstp="1" mode="normal"


 OUTPUT CONTROL FOR STRESS PERIOD 4 IS REPEATED USING SETTINGS FROM A PREVIOUS STRESS PERIOD.


 PROCESSING STORAGE PERIOD DATA
 END PROCESSING STORAGE PERIOD DATA


 STRESS PERIOD 4 IS TRANSIENT


 REUSING CSUBS FROM LAST STRESS PERIOD
 UBDSV1 SAVING           STO-SS ON UNIT   1019 AT TIME STEP      1, STRESS PERIOD      4
 UBDSV1 SAVING     FLOW-JA-FACE ON UNIT   1019 AT TIME STEP      1, STRESS PERIOD      4
 UBDSV1 SAVING  CSUB-CGELASTIC  ON UNIT   1019 AT TIME STEP      1, STRESS PERIOD      4
 UBDSV06 SAVING    CSUB-ELASTIC  IN MODEL CSUBSMOKE        PACKAGE CSUBSMOKE       CONNECTED TO MODEL CSUBSMOKE        PACKAGE CSUB             ON UNIT   1019 AT TIME STEP      1, STRESS PERIOD      4
 UBDSV06 SAVING  CSUB-INELASTIC  IN MODEL CSUBSMOKE        PACKAGE CSUBSMOKE       CONNECTED TO MODEL CSUBSMOKE        PACKAGE CSUB             ON UNIT   1019 AT TIME STEP      1, STRESS PERIOD      4
 UBDSV1 SAVING  CSUB-WATERCOMP  ON UNIT   1019 AT TIME STEP      1, STRESS PERIOD      4
 UBDSV06 SAVING              WEL IN MODEL CSUBSMOKE        PACKAGE CSUBSMOKE       CONNECTED TO MODEL CSUBSMOKE        PACKAGE WEL_0            ON UNIT   1019 AT TIME STEP      1, STRESS PERIOD      4
 UBDSV06 SAVING              CHD IN MODEL CSUBSMOKE        PACKAGE CSUBSMOKE       CONNECTED TO MODEL CSUBSMOKE        PACKAGE CHD_0            ON UNIT   1019 AT TIME STEP      1, STRESS PERIOD      4

 CSUB-COMPACTION WILL BE SAVED ON UNIT 1014 AT END OF TIME STEP    1, STRESS PERIOD    4

 CSUB-ZDISPLACE WILL BE SAVED ON UNIT 1015 AT END OF TIME STEP    1, STRESS PERIOD    4

 HEAD WILL BE SAVED ON UNIT 1020 AT END OF TIME STEP    1, STRESS PERIOD    4


  VOLUME BUDGET FOR ENTIRE MODEL AT END OF TIME STEP    1, STRESS PERIOD   4
  ---------------------------------------------------------------------------------------------------

     CUMULATIVE VOLUME      L**3       RATES FOR THIS TIME STEP      L**3/T          PACKAGE NAME    
     ------------------                 ------------------------                     ----------------

           IN:                                      IN:
           ---                                      ---
              STO-SS =           0.0000                STO-SS =           0.0000     STORAGE                          
      CSUB-CGELASTIC =        2180.9230        CSUB-CGELASTIC =       1.3828E-04     CSUB                             
        CSUB-ELASTIC =           0.0000          CSUB-ELASTIC =           0.0000     CSUB                             
      CSUB-INELASTIC =        5675.7182        CSUB-INELASTIC =       2.7725E-04     CSUB                             
      CSUB-WATERCOMP =         302.3166        CSUB-WATERCOMP =       1.9239E-05     CSUB                             
                 WEL =           0.0000                   WEL =           0.0000     WEL_0                            
                 CHD =     4372371.3648                   CHD =        3999.9997     CHD_0                            

            TOTAL IN =     4380530.3226              TOTAL IN =        4000.0001

          OUT:                                     OUT:
          ----                                     ----
              STO-SS =           0.0000                STO-SS =           0.0000     STORAGE                          
      CSUB-CGELASTIC =           0.0000        CSUB-CGELASTIC =           0.0000     CSUB                             
        CSUB-ELASTIC =           0.0000          CSUB-ELASTIC =           0.0000     CSUB                             
      CSUB-INELASTIC =           0.0000        CSUB-INELASTIC =           0.0000     CSUB                             
      CSUB-WATERCOMP =           0.0000        CSUB-WATERCOMP =           0.0000     CSUB                             
                 WEL =     4380000.0000                   WEL =        4000.0000     WEL_0                            
                 CHD =         529.2307                   CHD =           0.0000     CHD_0                            

           TOTAL OUT =     4380529.2307             TOTAL OUT =        4000.0000

            IN - OUT =           1.0919              IN - OUT =       9.3746E-05

 PERCENT DISCREPANCY =           0.00     PERCENT DISCREPANCY =           0.00




         TIME SUMMARY AT END OF TIME STEP    1 IN STRESS PERIOD    4
                    SECONDS     MINUTES      HOURS       DAYS        YEARS
                    -----------------------------------------------------------
   TIME STEP LENGTH 3.15360E+07 5.25600E+05  8760.0      365.00     0.99932    
 STRESS PERIOD TIME 3.15360E+07 5.25600E+05  8760.0      365.00     0.99932    
         TOTAL TIME 9.46944E+07 1.57824E+06  26304.      1096.0      3.0007    


end timestep


start timestep kper="5" kstp="1" mode="normal"


 OUTPUT CONTROL FOR STRESS PERIOD 5 IS REPEATED USING SETTINGS FROM A PREVIOUS STRESS PERIOD.


 PROCESSING STORAGE PERIOD DATA
 END PROCESSING STORAGE PERIOD DATA


 STRESS PERIOD 5 IS TRANSIENT


 REUSING CSUBS FROM LAST STRESS PERIOD
 UBDSV1 SAVING           STO-SS ON UNIT   1019 AT TIME STEP      1, STRESS PERIOD      5
 UBDSV1 SAVING     FLOW-JA-FACE ON UNIT   1019 AT TIME STEP      1, STRESS PERIOD      5
 UBDSV1 SAVING  CSUB-CGELASTIC  ON UNIT   1019 AT TIME STEP      1, STRESS PERIOD      5
 UBDSV06 SAVING    CSUB-ELASTIC  IN MODEL CSUBSMOKE        PACKAGE CSUBSMOKE       CONNECTED TO MODEL CSUBSMOKE        PACKAGE CSUB             ON UNIT   1019 AT TIME STEP      1, STRESS PERIOD      5
 UBDSV06 SAVING  CSUB-INELASTIC  IN MODEL CSUBSMOKE        PACKAGE CSUBSMOKE       CONNECTED TO MODEL CSUBSMOKE        PACKAGE CSUB             ON UNIT   1019 AT TIME STEP      1, STRESS PERIOD      5
 UBDSV1 SAVING  CSUB-WATERCOMP  ON UNIT   1019 AT TIME STEP      1, STRESS PERIOD      5
 UBDSV06 SAVING              WEL IN MODEL CSUBSMOKE        PACKAGE CSUBSMOKE       CONNECTED TO MODEL CSUBSMOKE        PACKAGE WEL_0            ON UNIT   1019 AT TIME STEP      1, STRESS PERIOD      5
 UBDSV06 SAVING              CHD IN MODEL CSUBSMOKE        PACKAGE CSUBSMOKE       CONNECTED TO MODEL CSUBSMOKE        PACKAGE CHD_0            ON UNIT   1019 AT TIME STEP      1, STRESS PERIOD      5

 CSUB-COMPACTION WILL BE SAVED ON UNIT 1014 AT END OF TIME STEP    1, STRESS PERIOD    5

 CSUB-ZDISPLACE WILL BE SAVED ON UNIT 1015 AT END OF TIME STEP    1, STRESS PERIOD    5

 HEAD WILL BE SAVED ON UNIT 1020 AT END OF TIME STEP    1, STRESS PERIOD    5


  VOLUME BUDGET FOR ENTIRE MODEL AT END OF TIME STEP    1, STRESS PERIOD   5
  ---------------------------------------------------------------------------------------------------

     CUMULATIVE VOLUME      L**3       RATES FOR THIS TIME STEP      L**3/T          PACKAGE NAME    
     ------------------                 ------------------------                     ----------------

           IN:                                      IN:
           ---                                      ---
              STO-SS =           0.0000                STO-SS =           0.0000     STORAGE                          
      CSUB-CGELASTIC =        2180.9231        CSUB-CGELASTIC =       6.4802E-08     CSUB                             
        CSUB-ELASTIC =           0.0000          CSUB-ELASTIC =           0.0000     CSUB                             
      CSUB-INELASTIC =        5675.7182        CSUB-INELASTIC =           0.0000     CSUB                             
      CSUB-WATERCOMP =         302.3166        CSUB-WATERCOMP =       1.0022E-08     CSUB                             
                 WEL =           0.0000                   WEL =           0.0000     WEL_0                            
                 CHD =     5832371.2535                   CHD =        3999.9997     CHD_0                            

            TOTAL IN =     5840530.2114              TOTAL IN =        3999.9997

          OUT:                                     OUT:
          ----                                     ----
              STO-SS =           0.0000                STO-SS =           0.0000     STORAGE                          
      CSUB-CGELASTIC =       6.8240E-06        CSUB-CGELASTIC =       1.8696E-08     CSUB                             
        CSUB-ELASTIC =       4.6582E-06          CSUB-ELASTIC =       1.2762E-08     CSUB                             
      CSUB-INELASTIC =           0.0000        CSUB-INELASTIC =           0.0000     CSUB                             
      CSUB-WATERCOMP =       1.4245E-07        CSUB-WATERCOMP =       3.9026E-10     CSUB                             
                 WEL =     5840000.0000                   WEL =        4000.0000     WEL_0                            
                 CHD =         529.2307                   CHD =           0.0000     CHD_0                            

           TOTAL OUT =     5840529.2307             TOTAL OUT =        4000.0000

            IN - OUT =           0.9806              IN - OUT =      -3.0480E-04

 PERCENT DISCREPANCY =           0.00     PERCENT DISCREPANCY =          -0.00




         TIME SUMMARY AT END OF TIME STEP    1 IN STRESS PERIOD    5
                    SECONDS     MINUTES      HOURS       DAYS        YEARS
                    -----------------------------------------------------------
   TIME STEP LENGTH 3.15360E+07 5.25600E+05  8760.0      365.00     0.99932    
 STRESS PERIOD TIME 3.15360E+07 5.25600E+05  8760.0      365.00     0.99932    
         TOTAL TIME 1.26230E+08 2.10384E+06  35064.      1461.0      4.0000    


end timestep


start timestep kper="6" kstp="1" mode="normal"


 OUTPUT CONTROL FOR STRESS PERIOD 6 IS REPEATED USING SETTINGS FROM A PREVIOUS STRESS PERIOD.


 PROCESSING STORAGE PERIOD DATA
 END PROCESSING STORAGE PERIOD DATA


 STRESS PERIOD 6 IS TRANSIENT


 REUSING CSUBS FROM LAST STRESS PERIOD
 UBDSV1 SAVING           STO-SS ON UNIT   1019 AT TIME STEP      1, STRESS PERIOD      6
 UBDSV1 SAVING     FLOW-JA-FACE ON UNIT   1019 AT TIME STEP      1, STRESS PERIOD      6
 UBDSV1 SAVING  CSUB-CGELASTIC  ON UNIT   1019 AT TIME STEP      1, STRESS PERIOD      6
 UBDSV06 SAVING    CSUB-ELASTIC  IN MODEL CSUBSMOKE        PACKAGE CSUBSMOKE       CONNECTED TO MODEL CSUBSMOKE        PACKAGE CSUB             ON UNIT   1019 AT TIME STEP      1, STRESS PERIOD      6
 UBDSV06 SAVING  CSUB-INELASTIC  IN MODEL CSUBSMOKE        PACKAGE CSUBSMOKE       CONNECTED TO MODEL CSUBSMOKE        PACKAGE CSUB             ON UNIT   1019 AT TIME STEP      1, STRESS PERIOD      6
 UBDSV1 SAVING  CSUB-WATERCOMP  ON UNIT   1019 AT TIME STEP      1, STRESS PERIOD      6
 UBDSV06 SAVING              WEL IN MODEL CSUBSMOKE        PACKAGE CSUBSMOKE       CONNECTED TO MODEL CSUBSMOKE        PACKAGE WEL_0            ON UNIT   1019 AT TIME STEP      1, STRESS PERIOD      6
 UBDSV06 SAVING              CHD IN MODEL CSUBSMOKE        PACKAGE CSUBSMOKE       CONNECTED TO MODEL CSUBSMOKE        PACKAGE CHD_0            ON UNIT   1019 AT TIME STEP      1, STRESS PERIOD      6

 CSUB-COMPACTION WILL BE SAVED ON UNIT 1014 AT END OF TIME STEP    1, STRESS PERIOD    6

 CSUB-ZDISPLACE WILL BE SAVED ON UNIT 1015 AT END OF TIME STEP    1, STRESS PERIOD    6

 HEAD WILL BE SAVED ON UNIT 1020 AT END OF TIME STEP    1, STRESS PERIOD    6


  VOLUME BUDGET FOR ENTIRE MODEL AT END OF TIME STEP    1, STRESS PERIOD   6
  ---------------------------------------------------------------------------------------------------

     CUMULATIVE VOLUME      L**3       RATES FOR THIS TIME STEP      L**3/T          PACKAGE NAME    
     ------------------                 ------------------------                     ----------------

           IN:                                      IN:
           ---                                      ---
              STO-SS =           0.0000                STO-SS =           0.0000     STORAGE                          
      CSUB-CGELASTIC =        2180.9231        CSUB-CGELASTIC =       1.5721E-07     CSUB                             
        CSUB-ELASTIC =       3.8497E-06          CSUB-ELASTIC =       1.0547E-08     CSUB                             
      CSUB-INELASTIC =        5675.7182        CSUB-INELASTIC =           0.0000     CSUB                             
      CSUB-WATERCOMP =         302.3167        CSUB-WATERCOMP =       1.2236E-08     CSUB                             
                 WEL =           0.0000                   WEL =           0.0000     WEL_0                            
                 CHD =     7292371.1631                   CHD =        3999.9998     CHD_0                            

            TOTAL IN =     7300530.1211              TOTAL IN =        3999.9998

          OUT:                                     OUT:
          ----                                     ----
              STO-SS =           0.0000                STO-SS =           0.0000     STORAGE                          
      CSUB-CGELASTIC =       7.0424E-06        CSUB-CGELASTIC =       5.9840E-10     CSUB                             
        CSUB-ELASTIC =       4.6582E-06          CSUB-ELASTIC =           0.0000     CSUB                             
      CSUB-INELASTIC =           0.0000        CSUB-INELASTIC =           0.0000     CSUB                             
      CSUB-WATERCOMP =       1.5594E-07        CSUB-WATERCOMP =       3.6977E-11     CSUB                             
                 WEL =     7300000.0000                   WEL =        4000.0000     WEL_0                            
                 CHD =         529.2307                   CHD =           0.0000     CHD_0                            

           TOTAL OUT =     7300529.2308             TOTAL OUT =        4000.0000

            IN - OUT =           0.8903              IN - OUT =      -2.4743E-04

 PERCENT DISCREPANCY =           0.00     PERCENT DISCREPANCY =          -0.00




         TIME SUMMARY AT END OF TIME STEP    1 IN STRESS PERIOD    6
                    SECONDS     MINUTES      HOURS       DAYS        YEARS
                    -----------------------------------------------------------
   TIME STEP LENGTH 3.15360E+07 5.25600E+05  8760.0      365.00     0.99932    
 STRESS PERIOD TIME 3.15360E+07 5.25600E+05  8760.0      365.00     0.99932    
         TOTAL TIME 1.57766E+08 2.62944E+06  43824.      1826.0      4.9993    


end timestep


start timestep kper="7" kstp="1" mode="normal"


 OUTPUT CONTROL FOR STRESS PERIOD 7 IS REPEATED USING SETTINGS FROM A PREVIOUS STRESS PERIOD.


 PROCESSING STORAGE PERIOD DATA
 END PROCESSING STORAGE PERIOD DATA


 STRESS PERIOD 7 IS TRANSIENT


 REUSING CSUBS FROM LAST STRESS PERIOD
 UBDSV1 SAVING           STO-SS ON UNIT   1019 AT TIME STEP      1, STRESS PERIOD      7
 UBDSV1 SAVING     FLOW-JA-FACE ON UNIT   1019 AT TIME STEP      1, STRESS PERIOD      7
 UBDSV1 SAVING  CSUB-CGELASTIC  ON UNIT   1019 AT TIME STEP      1, STRESS PERIOD      7
 UBDSV06 SAVING    CSUB-ELASTIC  IN MODEL CSUBSMOKE        PACKAGE CSUBSMOKE       CONNECTED TO MODEL CSUBSMOKE        PACKAGE CSUB             ON UNIT   1019 AT TIME STEP      1, STRESS PERIOD      7
 UBDSV06 SAVING  CSUB-INELASTIC  IN MODEL CSUBSMOKE        PACKAGE CSUBSMOKE       CONNECTED TO MODEL CSUBSMOKE        PACKAGE CSUB             ON UNIT   1019 AT TIME STEP      1, STRESS PERIOD      7
 UBDSV1 SAVING  CSUB-WATERCOMP  ON UNIT   1019 AT TIME STEP      1, STRESS PERIOD      7
 UBDSV06 SAVING              WEL IN MODEL CSUBSMOKE        PACKAGE CSUBSMOKE       CONNECTED TO MODEL CSUBSMOKE        PACKAGE WEL_0            ON UNIT   1019 AT TIME STEP      1, STRESS PERIOD      7
 UBDSV06 SAVING              CHD IN MODEL CSUBSMOKE        PACKAGE CSUBSMOKE       CONNECTED TO MODEL CSUBSMOKE        PACKAGE CHD_0            ON UNIT   1019 AT TIME STEP      1, STRESS PERIOD      7

 CSUB-COMPACTION WILL BE SAVED ON UNIT 1014 AT END OF TIME STEP    1, STRESS PERIOD    7

 CSUB-ZDISPLACE WILL BE SAVED ON UNIT 1015 AT END OF TIME STEP    1, STRESS PERIOD    7

 HEAD WILL BE SAVED ON UNIT 1020 AT END OF TIME STEP    1, STRESS PERIOD    7


  VOLUME BUDGET FOR ENTIRE MODEL AT END OF TIME STEP    1, STRESS PERIOD   7
  ---------------------------------------------------------------------------------------------------

     CUMULATIVE VOLUME      L**3       RATES FOR THIS TIME STEP      L**3/T          PACKAGE NAME    
     ------------------                 ------------------------                     ----------------

           IN:                                      IN:
           ---                                      ---
              STO-SS =           0.0000                STO-SS =           0.0000     STORAGE                          
      CSUB-CGELASTIC =        2180.9232        CSUB-CGELASTIC =       2.4281E-07     CSUB                             
        CSUB-ELASTIC =       4.6582E-06          CSUB-ELASTIC =       2.2152E-09     CSUB                             
      CSUB-INELASTIC =        5675.7182        CSUB-INELASTIC =       7.5896E-08     CSUB                             
      CSUB-WATERCOMP =         302.3167        CSUB-WATERCOMP =       2.1242E-08     CSUB                             
                 WEL =           0.0000                   WEL =           0.0000     WEL_0                            
                 CHD =     8752371.1190                   CHD =        3999.9999     CHD_0                            

            TOTAL IN =     8760530.0771              TOTAL IN =        3999.9999

          OUT:                                     OUT:
          ----                                     ----
              STO-SS =           0.0000                STO-SS =           0.0000     STORAGE                          
      CSUB-CGELASTIC =       7.0426E-06        CSUB-CGELASTIC =       3.6710E-13     CSUB                             
        CSUB-ELASTIC =       4.6582E-06          CSUB-ELASTIC =           0.0000     CSUB                             
      CSUB-INELASTIC =           0.0000        CSUB-INELASTIC =           0.0000     CSUB                             
      CSUB-WATERCOMP =       1.5594E-07        CSUB-WATERCOMP =           0.0000     CSUB                             
                 WEL =     8760000.0000                   WEL =        4000.0000     WEL_0                            
                 CHD =         529.2307                   CHD =           0.0000     CHD_0                            

           TOTAL OUT =     8760529.2308             TOTAL OUT =        4000.0000

            IN - OUT =           0.8464              IN - OUT =      -1.2046E-04

 PERCENT DISCREPANCY =           0.00     PERCENT DISCREPANCY =          -0.00




         TIME SUMMARY AT END OF TIME STEP    1 IN STRESS PERIOD    7
                    SECONDS     MINUTES      HOURS       DAYS        YEARS
                    -----------------------------------------------------------
   TIME STEP LENGTH 3.15360E+07 5.25600E+05  8760.0      365.00     0.99932    
 STRESS PERIOD TIME 3.15360E+07 5.25600E+05  8760.0      365.00     0.99932    
         TOTAL TIME 1.89302E+08 3.15504E+06  52584.      2191.0      5.9986    


end timestep


start timestep kper="8" kstp="1" mode="normal"


 OUTPUT CONTROL FOR STRESS PERIOD 8 IS REPEATED USING SETTINGS FROM A PREVIOUS STRESS PERIOD.


 PROCESSING STORAGE PERIOD DATA
 END PROCESSING STORAGE PERIOD DATA


 STRESS PERIOD 8 IS TRANSIENT


 REUSING CSUBS FROM LAST STRESS PERIOD
 UBDSV1 SAVING           STO-SS ON UNIT   1019 AT TIME STEP      1, STRESS PERIOD      8
 UBDSV1 SAVING     FLOW-JA-FACE ON UNIT   1019 AT TIME STEP      1, STRESS PERIOD      8
 UBDSV1 SAVING  CSUB-CGELASTIC  ON UNIT   1019 AT TIME STEP      1, STRESS PERIOD      8
 UBDSV06 SAVING    CSUB-ELASTIC  IN MODEL CSUBSMOKE        PACKAGE CSUBSMOKE       CONNECTED TO MODEL CSUBSMOKE        PACKAGE CSUB             ON UNIT   1019 AT TIME STEP      1, STRESS PERIOD      8
 UBDSV06 SAVING  CSUB-INELASTIC  IN MODEL CSUBSMOKE        PACKAGE CSUBSMOKE       CONNECTED TO MODEL CSUBSMOKE        PACKAGE CSUB             ON UNIT   1019 AT TIME STEP      1, STRESS PERIOD      8
 UBDSV1 SAVING  CSUB-WATERCOMP  ON UNIT   1019 AT TIME STEP      1, STRESS PERIOD      8
 UBDSV06 SAVING              WEL IN MODEL CSUBSMOKE        PACKAGE CSUBSMOKE       CONNECTED TO MODEL CSUBSMOKE        PACKAGE WEL_0            ON UNIT   1019 AT TIME STEP      1, STRESS PERIOD      8
 UBDSV06 SAVING              CHD IN MODEL CSUBSMOKE        PACKAGE CSUBSMOKE       CONNECTED TO MODEL CSUBSMOKE        PACKAGE CHD_0            ON UNIT   1019 AT TIME STEP      1, STRESS PERIOD      8

 CSUB-COMPACTION WILL BE SAVED ON UNIT 1014 AT END OF TIME STEP    1, STRESS PERIOD    8

 CSUB-ZDISPLACE WILL BE SAVED ON UNIT 1015 AT END OF TIME STEP    1, STRESS PERIOD    8

 HEAD WILL BE SAVED ON UNIT 1020 AT END OF TIME STEP    1, STRESS PERIOD    8


  VOLUME BUDGET FOR ENTIRE MODEL AT END OF TIME STEP    1, STRESS PERIOD   8
  ---------------------------------------------------------------------------------------------------

     CUMULATIVE VOLUME      L**3       RATES FOR THIS TIME STEP      L**3/T          PACKAGE NAME    
     ------------------                 ------------------------                     ----------------

           IN:                                      IN:
           ---                                      ---
              STO-SS =           0.0000                STO-SS =           0.0000     STORAGE                          
      CSUB-CGELASTIC =        2180.9233        CSUB-CGELASTIC =       1.8242E-07     CSUB                             
        CSUB-ELASTIC =       4.6582E-06          CSUB-ELASTIC =           0.0000     CSUB                             
      CSUB-INELASTIC =        5675.7183        CSUB-INELASTIC =       1.5010E-07     CSUB                             
      CSUB-WATERCOMP =         302.3167        CSUB-WATERCOMP =       3.8380E-09     CSUB                             
                 WEL =           0.0000                   WEL =           0.0000     WEL_0                            
                 CHD =    10212371.0847                   CHD =        3999.9999     CHD_0                            

            TOTAL IN =    10220530.0429              TOTAL IN =        3999.9999

          OUT:                                     OUT:
          ----                                     ----
              STO-SS =           0.0000                STO-SS =           0.0000     STORAGE                          
      CSUB-CGELASTIC =       7.0426E-06        CSUB-CGELASTIC =           0.0000     CSUB                             
        CSUB-ELASTIC =       4.6582E-06          CSUB-ELASTIC =           0.0000     CSUB                             
      CSUB-INELASTIC =           0.0000        CSUB-INELASTIC =           0.0000     CSUB                             
      CSUB-WATERCOMP =       1.5604E-07        CSUB-WATERCOMP =       2.7519E-13     CSUB                             
                 WEL =    10220000.0000                   WEL =        4000.0000     WEL_0                            
                 CHD =         529.2307                   CHD =           0.0000     CHD_0                            

           TOTAL OUT =    10220529.2308             TOTAL OUT =        4000.0000

            IN - OUT =           0.8121              IN - OUT =      -9.3724E-05

 PERCENT DISCREPANCY =           0.00     PERCENT DISCREPANCY =          -0.00




         TIME SUMMARY AT END OF TIME STEP    1 IN STRESS PERIOD    8
                    SECONDS     MINUTES      HOURS       DAYS        YEARS
                    -----------------------------------------------------------
   TIME STEP LENGTH 3.15360E+07 5.25600E+05  8760.0      365.00     0.99932    
 STRESS PERIOD TIME 3.15360E+07 5.25600E+05  8760.0      365.00     0.99932    
         TOTAL TIME 2.20838E+08 3.68064E+06  61344.      2556.0      6.9979    


end timestep


start timestep kper="9" kstp="1" mode="normal"


 OUTPUT CONTROL FOR STRESS PERIOD 9 IS REPEATED USING SETTINGS FROM A PREVIOUS STRESS PERIOD.


 PROCESSING STORAGE PERIOD DATA
 END PROCESSING STORAGE PERIOD DATA


 STRESS PERIOD 9 IS TRANSIENT


 REUSING CSUBS FROM LAST STRESS PERIOD
 UBDSV1 SAVING           STO-SS ON UNIT   1019 AT TIME STEP      1, STRESS PERIOD      9
 UBDSV1 SAVING     FLOW-JA-FACE ON UNIT   1019 AT TIME STEP      1, STRESS PERIOD      9
 UBDSV1 SAVING  CSUB-CGELASTIC  ON UNIT   1019 AT TIME STEP      1, STRESS PERIOD      9
 UBDSV06 SAVING    CSUB-ELASTIC  IN MODEL CSUBSMOKE        PACKAGE CSUBSMOKE       CONNECTED TO MODEL CSUBSMOKE        PACKAGE CSUB             ON UNIT   1019 AT TIME STEP      1, STRESS PERIOD      9
 UBDSV06 SAVING  CSUB-INELASTIC  IN MODEL CSUBSMOKE        PACKAGE CSUBSMOKE       CONNECTED TO MODEL CSUBSMOKE        PACKAGE CSUB             ON UNIT   1019 AT TIME STEP      1, STRESS PERIOD      9
 UBDSV1 SAVING  CSUB-WATERCOMP  ON UNIT   1019 AT TIME STEP      1, STRESS PERIOD      9
 UBDSV06 SAVING              WEL IN MODEL CSUBSMOKE        PACKAGE CSUBSMOKE       CONNECTED TO MODEL CSUBSMOKE        PACKAGE WEL_0            ON UNIT   1019 AT TIME STEP      1, STRESS PERIOD      9
 UBDSV06 SAVING              CHD IN MODEL CSUBSMOKE        PACKAGE CSUBSMOKE       CONNECTED TO MODEL CSUBSMOKE        PACKAGE CHD_0            ON UNIT   1019 AT TIME STEP      1, STRESS PERIOD      9

 CSUB-COMPACTION WILL BE SAVED ON UNIT 1014 AT END OF TIME STEP    1, STRESS PERIOD    9

 CSUB-ZDISPLACE WILL BE SAVED ON UNIT 1015 AT END OF TIME STEP    1, STRESS PERIOD    9

 HEAD WILL BE SAVED ON UNIT 1020 AT END OF TIME STEP    1, STRESS PERIOD    9


  VOLUME BUDGET FOR ENTIRE MODEL AT END OF TIME STEP    1, STRESS PERIOD   9
  ---------------------------------------------------------------------------------------------------

     CUMULATIVE VOLUME      L**3       RATES FOR THIS TIME STEP      L**3/T          PACKAGE NAME    
     ------------------                 ------------------------                     ----------------

           IN:                                      IN:
           ---                                      ---
              STO-SS =           0.0000                STO-SS =           0.0000     STORAGE                          
      CSUB-CGELASTIC =        2180.9233        CSUB-CGELASTIC =       8.0400E-08     CSUB                             
        CSUB-ELASTIC =       4.6582E-06          CSUB-ELASTIC =           0.0000     CSUB                             
      CSUB-INELASTIC =        5675.7183        CSUB-INELASTIC =       2.3024E-08     CSUB                             
      CSUB-WATERCOMP =         302.3167        CSUB-WATERCOMP =       7.2112E-09     CSUB                             
                 WEL =           0.0000                   WEL =           0.0000     WEL_0                            
                 CHD =    11672371.0668                   CHD =        4000.0000     CHD_0                            

            TOTAL IN =    11680530.0250              TOTAL IN =        4000.0000

          OUT:                                     OUT:
          ----                                     ----
              STO-SS =           0.0000                STO-SS =           0.0000     STORAGE                          
      CSUB-CGELASTIC =       7.0426E-06        CSUB-CGELASTIC =           0.0000     CSUB                             
        CSUB-ELASTIC =       4.6582E-06          CSUB-ELASTIC =           0.0000     CSUB                             
      CSUB-INELASTIC =           0.0000        CSUB-INELASTIC =           0.0000     CSUB                             
      CSUB-WATERCOMP =       1.5604E-07        CSUB-WATERCOMP =           0.0000     CSUB                             
                 WEL =    11680000.0000                   WEL =        4000.0000     WEL_0                            
                 CHD =         529.2307                   CHD =           0.0000     CHD_0                            

           TOTAL OUT =    11680529.2308             TOTAL OUT =        4000.0000

            IN - OUT =           0.7943              IN - OUT =      -4.8912E-05

 PERCENT DISCREPANCY =           0.00     PERCENT DISCREPANCY =          -0.00




         TIME SUMMARY AT END OF TIME STEP    1 IN STRESS PERIOD    9
                    SECONDS     MINUTES      HOURS       DAYS        YEARS
                    -----------------------------------------------------------
   TIME STEP LENGTH 3.15360E+07 5.25600E+05  8760.0      365.00     0.99932    
 STRESS PERIOD TIME 3.15360E+07 5.25600E+05  8760.0      365.00     0.99932    
         TOTAL TIME 2.52374E+08 4.20624E+06  70104.      2921.0      7.9973    


end timestep


start timestep kper="10" kstp="1" mode="normal"


 OUTPUT CONTROL FOR STRESS PERIOD 10 IS REPEATED USING SETTINGS FROM A PREVIOUS STRESS PERIOD.


 PROCESSING STORAGE PERIOD DATA
 END PROCESSING STORAGE PERIOD DATA


 STRESS PERIOD 10 IS TRANSIENT


 REUSING CSUBS FROM LAST STRESS PERIOD
 UBDSV1 SAVING           STO-SS ON UNIT   1019 AT TIME STEP      1, STRESS PERIOD     10
 UBDSV1 SAVING     FLOW-JA-FACE ON UNIT   1019 AT TIME STEP      1, STRESS PERIOD     10
 UBDSV1 SAVING  CSUB-CGELASTIC  ON UNIT   1019 AT TIME STEP      1, STRESS PERIOD     10
 UBDSV06 SAVING    CSUB-ELASTIC  IN MODEL CSUBSMOKE        PACKAGE CSUBSMOKE       CONNECTED TO MODEL CSUBSMOKE        PACKAGE CSUB             ON UNIT   1019 AT TIME STEP      1, STRESS PERIOD     10
 UBDSV06 SAVING  CSUB-INELASTIC  IN MODEL CSUBSMOKE        PACKAGE CSUBSMOKE       CONNECTED TO MODEL CSUBSMOKE        PACKAGE CSUB             ON UNIT   1019 AT TIME STEP      1, STRESS PERIOD     10
 UBDSV1 SAVING  CSUB-WATERCOMP  ON UNIT   1019 AT TIME STEP      1, STRESS PERIOD     10
 UBDSV06 SAVING              WEL IN MODEL CSUBSMOKE        PACKAGE CSUBSMOKE       CONNECTED TO MODEL CSUBSMOKE        PACKAGE WEL_0            ON UNIT   1019 AT TIME STEP      1, STRESS PERIOD     10
 UBDSV06 SAVING              CHD IN MODEL CSUBSMOKE        PACKAGE CSUBSMOKE       CONNECTED TO MODEL CSUBSMOKE        PACKAGE CHD_0            ON UNIT   1019 AT TIME STEP      1, STRESS PERIOD     10

 CSUB-COMPACTION WILL BE SAVED ON UNIT 1014 AT END OF TIME STEP    1, STRESS PERIOD   10

 CSUB-ZDISPLACE WILL BE SAVED ON UNIT 1015 AT END OF TIME STEP    1, STRESS PERIOD   10

 HEAD WILL BE SAVED ON UNIT 1020 AT END OF TIME STEP    1, STRESS PERIOD   10


  VOLUME BUDGET FOR ENTIRE MODEL AT END OF TIME STEP    1, STRESS PERIOD  10
  ---------------------------------------------------------------------------------------------------

     CUMULATIVE VOLUME      L**3       RATES FOR THIS TIME STEP      L**3/T          PACKAGE NAME    
     ------------------                 ------------------------                     ----------------

           IN:                                      IN:
           ---                                      ---
              STO-SS =           0.0000                STO-SS =           0.0000     STORAGE                          
      CSUB-CGELASTIC =        2180.9233        CSUB-CGELASTIC =       6.3188E-08     CSUB                             
        CSUB-ELASTIC =       4.6582E-06          CSUB-ELASTIC =           0.0000     CSUB                             
      CSUB-INELASTIC =        5675.7183        CSUB-INELASTIC =       4.5896E-08     CSUB                             
      CSUB-WATERCOMP =         302.3167        CSUB-WATERCOMP =       1.4732E-09     CSUB                             
                 WEL =           0.0000                   WEL =           0.0000     WEL_0                            
                 CHD =    13132371.0522                   CHD =        4000.0000     CHD_0                            

            TOTAL IN =    13140530.0105              TOTAL IN =        4000.0000

          OUT:                                     OUT:
          ----                                     ----
              STO-SS =           0.0000                STO-SS =           0.0000     STORAGE                          
      CSUB-CGELASTIC =       7.0426E-06        CSUB-CGELASTIC =           0.0000     CSUB                             
        CSUB-ELASTIC =       4.6582E-06          CSUB-ELASTIC =           0.0000     CSUB                             
      CSUB-INELASTIC =           0.0000        CSUB-INELASTIC =           0.0000     CSUB                             
      CSUB-WATERCOMP =       1.5604E-07        CSUB-WATERCOMP =           0.0000     CSUB                             
                 WEL =    13140000.0000                   WEL =        4000.0000     WEL_0                            
                 CHD =         529.2307                   CHD =           0.0000     CHD_0                            

           TOTAL OUT =    13140529.2308             TOTAL OUT =        4000.0000

            IN - OUT =           0.7797              IN - OUT =      -3.9850E-05

 PERCENT DISCREPANCY =           0.00     PERCENT DISCREPANCY =          -0.00




         TIME SUMMARY AT END OF TIME STEP    1 IN STRESS PERIOD   10
                    SECONDS     MINUTES      HOURS       DAYS        YEARS
                    -----------------------------------------------------------
   TIME STEP LENGTH 3.15360E+07 5.25600E+05  8760.0      365.00     0.99932    
 STRESS PERIOD TIME 3.15360E+07 5.25600E+05  8760.0      365.00     0.99932    
         TOTAL TIME 2.83910E+08 4.73184E+06  78864.      3286.0      8.9966    


end timestep


start timestep kper="11" kstp="1" mode="normal"


 OUTPUT CONTROL FOR STRESS PERIOD 11 IS REPEATED USING SETTINGS FROM A PREVIOUS STRESS PERIOD.


 PROCESSING STORAGE PERIOD DATA
 END PROCESSING STORAGE PERIOD DATA


 STRESS PERIOD 11 IS TRANSIENT


 REUSING CSUBS FROM LAST STRESS PERIOD
 UBDSV1 SAVING           STO-SS ON UNIT   1019 AT TIME STEP      1, STRESS PERIOD     11
 UBDSV1 SAVING     FLOW-JA-FACE ON UNIT   1019 AT TIME STEP      1, STRESS PERIOD     11
 UBDSV1 SAVING  CSUB-CGELASTIC  ON UNIT   1019 AT TIME STEP      1, STRESS PERIOD     11
 UBDSV06 SAVING    CSUB-ELASTIC  IN MODEL CSUBSMOKE        PACKAGE CSUBSMOKE       CONNECTED TO MODEL CSUBSMOKE        PACKAGE CSUB             ON UNIT   1019 AT TIME STEP      1, STRESS PERIOD     11
 UBDSV06 SAVING  CSUB-INELASTIC  IN MODEL CSUBSMOKE        PACKAGE CSUBSMOKE       CONNECTED TO MODEL CSUBSMOKE        PACKAGE CSUB             ON UNIT   1019 AT TIME STEP      1, STRESS PERIOD     11
 UBDSV1 SAVING  CSUB-WATERCOMP  ON UNIT   1019 AT TIME STEP      1, STRESS PERIOD     11
 UBDSV06 SAVING              WEL IN MODEL CSUBSMOKE        PACKAGE CSUBSMOKE       CONNECTED TO MODEL CSUBSMOKE        PACKAGE WEL_0            ON UNIT   1019 AT TIME STEP      1, STRESS PERIOD     11
 UBDSV06 SAVING              CHD IN MODEL CSUBSMOKE        PACKAGE CSUBSMOKE       CONNECTED TO MODEL CSUBSMOKE        PACKAGE CHD_0            ON UNIT   1019 AT TIME STEP      1, STRESS PERIOD     11

 CSUB-COMPACTION WILL BE SAVED ON UNIT 1014 AT END OF TIME STEP    1, STRESS PERIOD   11

 CSUB-ZDISPLACE WILL BE SAVED ON UNIT 1015 AT END OF TIME STEP    1, STRESS PERIOD   11

 HEAD WILL BE SAVED ON UNIT 1020 AT END OF TIME STEP    1, STRESS PERIOD   11


  VOLUME BUDGET FOR ENTIRE MODEL AT END OF TIME STEP    1, STRESS PERIOD  11
  ---------------------------------------------------------------------------------------------------

     CUMULATIVE VOLUME      L**3       RATES FOR THIS TIME STEP      L**3/T          PACKAGE NAME    
     ------------------                 ------------------------                     ----------------

           IN:                                      IN:
           ---                                      ---
              STO-SS =           0.0000                STO-SS =           0.0000     STORAGE                          
      CSUB-CGELASTIC =        2180.9233        CSUB-CGELASTIC =       3.8522E-08     CSUB                             
        CSUB-ELASTIC =       4.6582E-06          CSUB-ELASTIC =           0.0000     CSUB                             
      CSUB-INELASTIC =        5675.7183        CSUB-INELASTIC =       9.5101E-09     CSUB                             
      CSUB-WATERCOMP =         302.3167        CSUB-WATERCOMP =       3.8229E-09     CSUB                             
                 WEL =           0.0000                   WEL =           0.0000     WEL_0                            
                 CHD =    14592371.0461                   CHD =        4000.0000     CHD_0                            

            TOTAL IN =    14600530.0044              TOTAL IN =        4000.0000

          OUT:                                     OUT:
          ----                                     ----
              STO-SS =           0.0000                STO-SS =           0.0000     STORAGE                          
      CSUB-CGELASTIC =       7.0426E-06        CSUB-CGELASTIC =           0.0000     CSUB                             
        CSUB-ELASTIC =       4.6582E-06          CSUB-ELASTIC =           0.0000     CSUB                             
      CSUB-INELASTIC =           0.0000        CSUB-INELASTIC =           0.0000     CSUB                             
      CSUB-WATERCOMP =       1.5604E-07        CSUB-WATERCOMP =           0.0000     CSUB                             
                 WEL =    14600000.0000                   WEL =        4000.0000     WEL_0                            
                 CHD =         529.2307                   CHD =           0.0000     CHD_0                            

           TOTAL OUT =    14600529.2308             TOTAL OUT =        4000.0000

            IN - OUT =           0.7737              IN - OUT =      -1.6589E-05

 PERCENT DISCREPANCY =           0.00     PERCENT DISCREPANCY =          -0.00




         TIME SUMMARY AT END OF TIME STEP    1 IN STRESS PERIOD   11
                    SECONDS     MINUTES      HOURS       DAYS        YEARS
                    -----------------------------------------------------------
   TIME STEP LENGTH 3.15360E+07 5.25600E+05  8760.0      365.00     0.99932    
 STRESS PERIOD TIME 3.15360E+07 5.25600E+05  8760.0      365.00     0.99932    
         TOTAL TIME 3.15446E+08 5.25744E+06  87624.      3651.0      9.9959    


end timestep

 
 LARGEST 9 OF 9 INTERBED STRAIN VALUES SHOWN

 CSUB PACKAGE INTERBED STRAIN SUMMARY
 ----------------------------------------------------------------------------------------------------------------------
  INTERBED   INTERBED                         INITIAL       FINAL        TOTAL                    PERCENT              
   NUMBER      TYPE    CELLID                THICKNESS    THICKNESS    COMPACTION  FINAL STRAIN  COMPACTION     FLAG   
 ----------------------------------------------------------------------------------------------------------------------
     5       no-delay  (1,21,21)             15.000       15.000       0.36973      2.46489E-02  2.4649        *>=1%   
     8       no-delay  (1,22,21)             15.000       15.000       0.25361      1.69075E-02  1.6908        *>=1%   
     4       no-delay  (1,21,20)             15.000       15.000       0.25353      1.69021E-02  1.6902        *>=1%   
     2       no-delay  (1,20,21)             15.000       15.000       0.25346      1.68972E-02  1.6897        *>=1%   
     6       no-delay  (1,21,22)             15.000       15.000       0.25322      1.68812E-02  1.6881        *>=1%   
     7       no-delay  (1,22,20)             15.000       15.000       0.22192      1.47945E-02  1.4794        *>=1%   
     1       no-delay  (1,20,20)             15.000       15.000       0.22176      1.47842E-02  1.4784        *>=1%   
     9       no-delay  (1,22,22)             15.000       15.000       0.22160      1.47735E-02  1.4774        *>=1%   
     3       no-delay  (1,20,22)             15.000       15.000       0.22145      1.47633E-02  1.4763        *>=1%   
 ----------------------------------------------------------------------------------------------------------------------



 PERCENT COMPACTION IS GREATER THAN OR EQUAL TO 1 PERCENT IN 9 OF 9 INTERBED(S).
 USE THE STRAIN_CSV_INTERBED OPTION TO OUTPUT A CSV FILE WITH PERCENT COMPACTION 
 VALUES FOR ALL INTERBEDS.

 COARSE-GRAINED STORAGE PERCENT COMPACTION WAS LESS THAN 1 PERCENT IN ALL CELLS
